/*--------------------------------*- C++ -*----------------------------------*\
  =========                 |
  \\      /  F ield         | OpenFOAM: The Open Source CFD Toolbox
   \\    /   O peration     | Website:  https://openfoam.org
    \\  /    A nd           | Version:  12
     \\/     M anipulation  |
\*---------------------------------------------------------------------------*/
FoamFile
{
    format      ascii;
    class       polyBoundaryMesh;
    location    "constant/polyMesh";
    object      boundary;
}
// * * * * * * * * * * * * * * * * * * * * * * * * * * * * * * * * * * * * * //

4
(
    inlet
    {
        type            patch;
        nFaces          2500;
        startFace       1091952;
    }
    outlet
    {
        type            patch;
        nFaces          2500;
        startFace       1094452;
    }
    walls
    {
        type            wall;
        inGroups        List<word> 1(wall);
        nFaces          20000;
        startFace       1096952;
    }
    rocket
    {
        type            wall;
        inGroups        List<word> 1(wall);
        nFaces          12247;
        startFace       1116952;
    }
)

// ************************************************************************* //
