/*--------------------------------*- C++ -*----------------------------------*\
  =========                 |
  \\      /  F ield         | OpenFOAM: The Open Source CFD Toolbox
   \\    /   O peration     | Website:  https://openfoam.org
    \\  /    A nd           | Version:  12
     \\/     M anipulation  |
\*---------------------------------------------------------------------------*/
FoamFile
{
    format      ascii;
    class       extendedFeatureEdgeMesh;
    location    "constant/extendedFeatureEdgeMesh";
    object      rocket.extendedFeatureEdgeMesh;
}
// * * * * * * * * * * * * * * * * * * * * * * * * * * * * * * * * * * * * * //

// points

377
(
(-8.6396999 0.3328 22.878901)
(-8.5974998 0.333 22.8776)
(-8.6396999 -0.0098000001 22.878901)
(-8.5974998 -0.0099999998 22.8776)
(-1.321 0.3328 5.2210999)
(-1.3631001 0.333 5.2249999)
(-1.321 -0.0098000001 5.2210999)
(-1.3631001 -0.0099999998 5.2249999)
(8.4418001 -0.0098000001 22.878901)
(8.3997002 -0.0099999998 22.8776)
(8.4418001 0.3328 22.878901)
(8.3997002 0.333 22.8776)
(1.1231 -0.0098000001 5.2210999)
(1.1653 -0.0099999998 5.2249999)
(1.1231 0.3328 5.2210999)
(1.1653 0.333 5.2249999)
(-0.27020001 -8.3793001 22.878901)
(-0.2705 -8.3371 22.8776)
(0.072300002 -8.3793001 22.878901)
(0.0726 -8.3371 22.8776)
(-0.27020001 -1.0605 5.2210999)
(-0.2705 -1.1027 5.2249999)
(0.072300002 -1.0605 5.2210999)
(0.0726 -1.1027 5.2249999)
(0.072300002 8.7023001 22.878901)
(0.0726 8.6601 22.8776)
(-0.27020001 8.7023001 22.878901)
(-0.2705 8.6601 22.8776)
(0.072300002 1.3835 5.2210999)
(0.0726 1.4256999 5.2249999)
(-0.27020001 1.3835 5.2210999)
(-0.2705 1.4256999 5.2249999)
(-8.6303997 0.35170001 22.8521)
(-8.5924997 0.35280001 22.851299)
(-8.5992002 0.26519999 22.8864)
(-8.5992002 0.30399999 22.8864)
(-8.6428003 0.30399999 22.8878)
(-8.6428003 0.26519999 22.8878)
(-8.665 0.333 22.831499)
(-8.665 0.3545 22.6723)
(-8.6534004 0.35280001 22.8097)
(-8.5992002 0.018999999 22.8864)
(-8.5992002 0.057799999 22.8864)
(-8.6428003 0.057799999 22.8878)
(-8.6428003 0.018999999 22.8878)
(-8.5924997 -0.0298 22.851299)
(-8.6303997 -0.0287 22.8521)
(-8.665 -0.0099999998 22.831499)
(-8.665 -0.031500001 22.6723)
(-8.6534004 -0.0298 22.8097)
(-8.5992002 0.2159 22.8864)
(-8.6428003 0.2159 22.8878)
(-8.5992002 0.16150001 22.8864)
(-8.6428003 0.16150001 22.8878)
(-8.5992002 0.1071 22.8864)
(-8.6428003 0.1071 22.8878)
(-1.3302 0.35170001 5.2613001)
(-1.3681999 0.35280001 5.2645001)
(-1.3614 0.26519999 5.2119002)
(-1.3614 0.30399999 5.2119002)
(-1.3178999 0.30399999 5.2076998)
(-1.3178999 0.26519999 5.2076998)
(-1.3614 0.018999999 5.2119002)
(-1.3614 0.057799999 5.2119002)
(-1.3178999 0.057799999 5.2076998)
(-1.3178999 0.018999999 5.2076998)
(-1.3681999 -0.0298 5.2645001)
(-1.3302 -0.0287 5.2613001)
(-1.3614 0.2159 5.2119002)
(-1.3178999 0.2159 5.2076998)
(-1.3614 0.16150001 5.2119002)
(-1.3178999 0.16150001 5.2076998)
(-1.3614 0.1071 5.2119002)
(-1.3178999 0.1071 5.2076998)
(-1.2956001 -0.0099999998 5.2902999)
(-1.2956001 -0.031500001 5.5630002)
(-1.3072 -0.0298 5.3234)
(-1.2956001 0.333 5.2902999)
(-1.2956001 0.3545 5.5630002)
(-1.3072 0.35280001 5.3234)
(8.4326 -0.0287 22.8521)
(8.3945999 -0.0298 22.851299)
(8.4013996 0.057799999 22.8864)
(8.4013996 0.018999999 22.8864)
(8.4448996 0.018999999 22.8878)
(8.4448996 0.057799999 22.8878)
(8.4672003 -0.0099999998 22.831499)
(8.4672003 -0.031500001 22.6723)
(8.4555998 -0.0298 22.8097)
(8.4013996 0.30399999 22.8864)
(8.4013996 0.26519999 22.8864)
(8.4448996 0.26519999 22.8878)
(8.4448996 0.30399999 22.8878)
(8.3945999 0.35280001 22.851299)
(8.4326 0.35170001 22.8521)
(8.4672003 0.333 22.831499)
(8.4672003 0.3545 22.6723)
(8.4555998 0.35280001 22.8097)
(8.4013996 0.1071 22.8864)
(8.4448996 0.1071 22.8878)
(8.4013996 0.16150001 22.8864)
(8.4448996 0.16150001 22.8878)
(8.4013996 0.2159 22.8864)
(8.4448996 0.2159 22.8878)
(1.1324 -0.0287 5.2613001)
(1.1703 -0.0298 5.2645001)
(1.3233 -0.0105 5.4589)
(1.1636 0.057799999 5.2119002)
(1.1636 0.018999999 5.2119002)
(1.12 0.018999999 5.2076998)
(1.12 0.057799999 5.2076998)
(1.1636 0.30399999 5.2119002)
(1.1636 0.26519999 5.2119002)
(1.12 0.26519999 5.2076998)
(1.12 0.30399999 5.2076998)
(1.3233 0.3335 5.4589)
(1.1703 0.35280001 5.2645001)
(1.1324 0.35170001 5.2613001)
(1.1636 0.1071 5.2119002)
(1.12 0.1071 5.2076998)
(1.1636 0.16150001 5.2119002)
(1.12 0.16150001 5.2076998)
(1.1636 0.2159 5.2119002)
(1.12 0.2159 5.2076998)
(1.0978 0.333 5.2902999)
(1.0978 0.3545 5.5630002)
(1.1094 0.35280001 5.3234)
(1.0978 -0.0099999998 5.2902999)
(1.0978 -0.031500001 5.5630002)
(1.1094 -0.0298 5.3234)
(-0.28909999 -8.3699999 22.8521)
(-0.2902 -8.3320999 22.851299)
(-0.2026 -8.3388004 22.8864)
(-0.2414 -8.3388004 22.8864)
(-0.2414 -8.3823004 22.8878)
(-0.2026 -8.3823004 22.8878)
(-0.2705 -8.4046001 22.831499)
(-0.29190001 -8.4046001 22.6723)
(-0.2902 -8.3929996 22.8097)
(0.0436 -8.3388004 22.8864)
(0.0048000002 -8.3388004 22.8864)
(0.0048000002 -8.3823004 22.8878)
(0.0436 -8.3823004 22.8878)
(0.092399999 -8.3320999 22.851299)
(0.091300003 -8.3699999 22.8521)
(0.0726 -8.4046001 22.831499)
(0.094099998 -8.4046001 22.6723)
(0.092399999 -8.3929996 22.8097)
(-0.1534 -8.3388004 22.8864)
(-0.1534 -8.3823004 22.8878)
(-0.098899998 -8.3388004 22.8864)
(-0.098899998 -8.3823004 22.8878)
(-0.044500001 -8.3388004 22.8864)
(-0.044500001 -8.3823004 22.8878)
(-0.28909999 -1.0698 5.2613001)
(-0.2902 -1.1077 5.2645001)
(-0.27090001 -1.2607 5.4589)
(-0.2026 -1.101 5.2119002)
(-0.2414 -1.101 5.2119002)
(-0.2414 -1.0575 5.2076998)
(-0.2026 -1.0575 5.2076998)
(0.0436 -1.101 5.2119002)
(0.0048000002 -1.101 5.2119002)
(0.0048000002 -1.0575 5.2076998)
(0.0436 -1.0575 5.2076998)
(0.072999999 -1.2607 5.4589)
(0.092399999 -1.1077 5.2645001)
(0.091300003 -1.0698 5.2613001)
(-0.1534 -1.101 5.2119002)
(-0.1534 -1.0575 5.2076998)
(-0.098899998 -1.101 5.2119002)
(-0.098899998 -1.0575 5.2076998)
(-0.044500001 -1.101 5.2119002)
(-0.044500001 -1.0575 5.2076998)
(0.0726 -1.0352 5.2902999)
(0.094099998 -1.0352 5.5630002)
(0.092399999 -1.0468 5.3234)
(-0.2705 -1.0352 5.2902999)
(-0.29190001 -1.0352 5.5630002)
(-0.2902 -1.0468 5.3234)
(0.091300003 8.6929998 22.8521)
(0.092399999 8.6550999 22.851299)
(0.0048000002 8.6618004 22.8864)
(0.0436 8.6618004 22.8864)
(0.0436 8.7054005 22.8878)
(0.0048000002 8.7054005 22.8878)
(0.0726 8.7276001 22.831499)
(0.094099998 8.7276001 22.6723)
(0.092399999 8.7159996 22.8097)
(-0.2414 8.6618004 22.8864)
(-0.2026 8.6618004 22.8864)
(-0.2026 8.7054005 22.8878)
(-0.2414 8.7054005 22.8878)
(-0.2902 8.6550999 22.851299)
(-0.28909999 8.6929998 22.8521)
(-0.2705 8.7276001 22.831499)
(-0.29190001 8.7276001 22.6723)
(-0.2902 8.7159996 22.8097)
(-0.044500001 8.6618004 22.8864)
(-0.044500001 8.7054005 22.8878)
(-0.098899998 8.6618004 22.8864)
(-0.098899998 8.7054005 22.8878)
(-0.1534 8.6618004 22.8864)
(-0.1534 8.7054005 22.8878)
(0.091300003 1.3928 5.2613001)
(0.092399999 1.4308 5.2645001)
(0.0048000002 1.424 5.2119002)
(0.0436 1.424 5.2119002)
(0.0436 1.3805 5.2076998)
(0.0048000002 1.3805 5.2076998)
(-0.2414 1.424 5.2119002)
(-0.2026 1.424 5.2119002)
(-0.2026 1.3805 5.2076998)
(-0.2414 1.3805 5.2076998)
(-0.27090001 1.5836999 5.4589)
(-0.2902 1.4308 5.2645001)
(-0.28909999 1.3928 5.2613001)
(-0.044500001 1.424 5.2119002)
(-0.044500001 1.3805 5.2076998)
(-0.098899998 1.424 5.2119002)
(-0.098899998 1.3805 5.2076998)
(-0.1534 1.424 5.2119002)
(-0.1534 1.3805 5.2076998)
(-0.2705 1.3582 5.2902999)
(-0.29190001 1.3582 5.5630002)
(-0.2902 1.3698 5.3234)
(0.0726 1.3582 5.2902999)
(0.094099998 1.3582 5.5630002)
(0.092399999 1.3698 5.3234)
(-1.676 1.3716 15.7268)
(-1.8207 1.1556 15.7268)
(-1.5043 1.5669 15.7268)
(-1.0930001 1.8832999 15.7268)
(-1.309 1.7386 15.7268)
(-0.85970002 1.998 15.7268)
(-0.61330003 2.0813999 15.7268)
(-0.098899998 2.1496999 15.7268)
(-0.3583 2.1322999 15.7268)
(0.1605 2.1322999 15.7268)
(0.41549999 2.0813999 15.7268)
(0.89520001 1.8832999 15.7268)
(0.66189998 1.998 15.7268)
(1.1111 1.7386 15.7268)
(1.3065 1.5669 15.7268)
(1.6229 1.1556 15.7268)
(1.4782 1.3716 15.7268)
(1.7376 0.92229998 15.7268)
(1.8209 0.67589998 15.7268)
(1.8893 0.16150001 15.7268)
(1.8719 0.42089999 15.7268)
(1.8719 -0.097900003 15.7268)
(1.8209 -0.3529 15.7268)
(1.6229 -0.8326 15.7268)
(1.7376 -0.59930003 15.7268)
(1.4782 -1.0484999 15.7268)
(1.3065 -1.2438999 15.7268)
(0.89520001 -1.5603 15.7268)
(1.1111 -1.4155999 15.7268)
(0.66189998 -1.675 15.7268)
(0.41549999 -1.7582999 15.7268)
(-0.098899998 -1.8267 15.7268)
(0.1605 -1.8092999 15.7268)
(-0.3583 -1.8092999 15.7268)
(-0.61330003 -1.7582999 15.7268)
(-1.0930001 -1.5603 15.7268)
(-0.85970002 -1.675 15.7268)
(-1.309 -1.4155999 15.7268)
(-1.5043 -1.2438999 15.7268)
(-1.8207 -0.8326 15.7268)
(-1.676 -1.0484999 15.7268)
(-1.9354 -0.59930003 15.7268)
(-2.0188 -0.3529 15.7268)
(-2.0871 0.16150001 15.7268)
(-2.0697 -0.097900003 15.7268)
(-2.0697 0.42089999 15.7268)
(-2.0188 0.67589998 15.7268)
(-1.9354 0.92229998 15.7268)
(-1.0231 0.87059999 16.4347)
(-1.1079 0.74409997 16.4347)
(-0.92250001 0.98509997 16.4347)
(-0.68150002 1.1705 16.4347)
(-0.80800003 1.0857 16.4347)
(-0.54470003 1.2377 16.4347)
(-0.40040001 1.2866 16.4347)
(-0.098899998 1.3266 16.4347)
(-0.2509 1.3164001 16.4347)
(0.053100001 1.3164001 16.4347)
(0.2025 1.2866 16.4347)
(0.48359999 1.1705 16.4347)
(0.34689999 1.2377 16.4347)
(0.61019999 1.0857 16.4347)
(0.72469997 0.98509997 16.4347)
(0.91009998 0.74409997 16.4347)
(0.82529998 0.87059999 16.4347)
(0.97729999 0.60729998 16.4347)
(1.0262001 0.463 16.4347)
(1.0662 0.16150001 16.4347)
(1.056 0.31349999 16.4347)
(1.056 0.0094999997 16.4347)
(1.0262001 -0.1399 16.4347)
(0.91009998 -0.421 16.4347)
(0.97729999 -0.2843 16.4347)
(0.82529998 -0.54759997 16.4347)
(0.72469997 -0.66210002 16.4347)
(0.48359999 -0.84750003 16.4347)
(0.61019999 -0.76270002 16.4347)
(0.34689999 -0.91469997 16.4347)
(0.2025 -0.96359998 16.4347)
(-0.098899998 -1.0036 16.4347)
(0.053100001 -0.99339998 16.4347)
(-0.2509 -0.99339998 16.4347)
(-0.40040001 -0.96359998 16.4347)
(-0.68150002 -0.84750003 16.4347)
(-0.54470003 -0.91469997 16.4347)
(-0.80800003 -0.76270002 16.4347)
(-0.92250001 -0.66210002 16.4347)
(-1.1079 -0.421 16.4347)
(-1.0231 -0.54759997 16.4347)
(-1.1751 -0.2843 16.4347)
(-1.224 -0.1399 16.4347)
(-1.2640001 0.16150001 16.4347)
(-1.2538 0.0094999997 16.4347)
(-1.2538 0.31349999 16.4347)
(-1.224 0.463 16.4347)
(-1.1751 0.60729998 16.4347)
(-0.96130002 0.27500001 16.438499)
(-0.96890002 0.16150001 16.438499)
(-0.93900001 0.38659999 16.438499)
(-0.85229999 0.59649998 16.438499)
(-0.90249997 0.49439999 16.438499)
(-0.78899997 0.69099998 16.438499)
(-0.71390003 0.77649999 16.438499)
(-0.53390002 0.9149 16.438499)
(-0.62840003 0.85159999 16.438499)
(-0.43180001 0.96509999 16.438499)
(-0.324 1.0016 16.438499)
(-0.098899998 1.0315 16.438499)
(-0.2124 1.0239 16.438499)
(0.0146 1.0239 16.438499)
(0.12620001 1.0016 16.438499)
(0.33610001 0.9149 16.438499)
(0.234 0.96509999 16.438499)
(0.4305 0.85159999 16.438499)
(0.51599997 0.77649999 16.438499)
(0.65450001 0.59649998 16.438499)
(0.59119999 0.69099998 16.438499)
(0.70459998 0.49439999 16.438499)
(0.74110001 0.38659999 16.438499)
(0.77100003 0.16150001 16.438499)
(0.76340002 0.27500001 16.438499)
(0.76340002 0.048 16.438499)
(0.74110001 -0.063600004 16.438499)
(0.65450001 -0.2735 16.438499)
(0.70459998 -0.1714 16.438499)
(0.59119999 -0.36790001 16.438499)
(0.51599997 -0.45339999 16.438499)
(0.33610001 -0.59189999 16.438499)
(0.4305 -0.52859998 16.438499)
(0.234 -0.64200002 16.438499)
(0.12620001 -0.6785 16.438499)
(-0.098899998 -0.70840001 16.438499)
(0.0146 -0.7008 16.438499)
(-0.2124 -0.7008 16.438499)
(-0.324 -0.6785 16.438499)
(-0.53390002 -0.59189999 16.438499)
(-0.43180001 -0.64200002 16.438499)
(-0.62840003 -0.52859998 16.438499)
(-0.71390003 -0.45339999 16.438499)
(-0.85229999 -0.2735 16.438499)
(-0.78899997 -0.36790001 16.438499)
(-0.90249997 -0.1714 16.438499)
(-0.93900001 -0.063600004 16.438499)
(-0.96130002 0.048 16.438499)
(0.2316 0.9594 15.9802)
(0.1246 0.9957 15.9802)
(-0.93309999 -0.061999999 15.9802)
(-0.89679998 -0.169 15.9802)
)

// edges

359
(
(0 1)
(32 0)
(1 33)
(34 35)
(36 37)
(1 35)
(0 36)
(0 38)
(39 40)
(41 42)
(43 44)
(44 2)
(3 41)
(2 3)
(3 45)
(2 46)
(2 47)
(48 49)
(50 34)
(37 51)
(52 50)
(51 53)
(42 54)
(55 43)
(52 54)
(53 55)
(4 5)
(56 4)
(5 57)
(58 59)
(60 61)
(5 59)
(4 60)
(62 63)
(64 65)
(65 6)
(7 62)
(6 7)
(7 66)
(6 67)
(68 58)
(61 69)
(70 68)
(69 71)
(63 72)
(73 64)
(70 72)
(71 73)
(6 74)
(75 76)
(4 77)
(78 79)
(8 9)
(80 8)
(9 81)
(82 83)
(84 85)
(9 83)
(8 84)
(8 86)
(87 88)
(89 90)
(91 92)
(92 10)
(11 89)
(10 11)
(11 93)
(10 94)
(10 95)
(96 97)
(98 82)
(85 99)
(100 98)
(99 101)
(90 102)
(103 91)
(100 102)
(101 103)
(12 13)
(104 12)
(13 105)
(13 106)
(107 108)
(109 110)
(13 108)
(12 109)
(111 112)
(113 114)
(114 14)
(15 111)
(14 15)
(15 115)
(15 116)
(14 117)
(118 107)
(110 119)
(120 118)
(119 121)
(112 122)
(123 113)
(120 122)
(121 123)
(14 124)
(125 126)
(12 127)
(128 129)
(16 17)
(130 16)
(17 131)
(132 133)
(134 135)
(17 133)
(16 134)
(16 136)
(137 138)
(139 140)
(141 142)
(142 18)
(19 139)
(18 19)
(19 143)
(18 144)
(18 145)
(146 147)
(148 132)
(135 149)
(150 148)
(149 151)
(140 152)
(153 141)
(150 152)
(151 153)
(20 21)
(154 20)
(21 155)
(21 156)
(157 158)
(159 160)
(21 158)
(20 159)
(161 162)
(163 164)
(164 22)
(23 161)
(22 23)
(23 165)
(23 166)
(22 167)
(168 157)
(160 169)
(170 168)
(169 171)
(162 172)
(173 163)
(170 172)
(171 173)
(22 174)
(175 176)
(20 177)
(178 179)
(24 25)
(180 24)
(25 181)
(182 183)
(184 185)
(25 183)
(24 184)
(24 186)
(187 188)
(189 190)
(191 192)
(192 26)
(27 189)
(26 27)
(27 193)
(26 194)
(26 195)
(196 197)
(198 182)
(185 199)
(200 198)
(199 201)
(190 202)
(203 191)
(200 202)
(201 203)
(28 29)
(204 28)
(29 205)
(206 207)
(208 209)
(29 207)
(28 208)
(210 211)
(212 213)
(213 30)
(31 210)
(30 31)
(31 214)
(31 215)
(30 216)
(217 206)
(209 218)
(219 217)
(218 220)
(211 221)
(222 212)
(219 221)
(220 222)
(30 223)
(224 225)
(28 226)
(227 228)
(229 230)
(231 229)
(232 233)
(231 233)
(234 232)
(235 234)
(236 237)
(235 237)
(238 236)
(239 238)
(240 241)
(239 241)
(242 240)
(243 242)
(244 245)
(243 245)
(246 244)
(247 246)
(248 249)
(247 249)
(250 248)
(251 250)
(252 253)
(251 253)
(254 252)
(255 254)
(256 257)
(255 257)
(258 256)
(259 258)
(260 261)
(259 261)
(262 260)
(263 262)
(264 265)
(263 265)
(266 264)
(267 266)
(268 269)
(267 269)
(270 268)
(271 270)
(272 273)
(271 273)
(274 272)
(275 274)
(230 276)
(275 276)
(277 278)
(279 277)
(280 281)
(279 281)
(282 280)
(283 282)
(284 285)
(283 285)
(286 284)
(287 286)
(288 289)
(287 289)
(290 288)
(291 290)
(292 293)
(291 293)
(294 292)
(295 294)
(296 297)
(295 297)
(298 296)
(299 298)
(300 301)
(299 301)
(302 300)
(303 302)
(304 305)
(303 305)
(306 304)
(307 306)
(308 309)
(307 309)
(310 308)
(311 310)
(312 313)
(311 313)
(314 312)
(315 314)
(316 317)
(315 317)
(318 316)
(319 318)
(320 321)
(319 321)
(322 320)
(323 322)
(278 324)
(323 324)
(325 326)
(327 325)
(328 329)
(327 329)
(330 328)
(331 330)
(332 333)
(331 333)
(334 332)
(335 334)
(336 337)
(335 337)
(338 336)
(339 338)
(340 341)
(339 341)
(342 340)
(343 342)
(344 345)
(343 345)
(346 344)
(347 346)
(348 349)
(347 349)
(350 348)
(351 350)
(352 353)
(351 353)
(354 352)
(355 354)
(356 357)
(355 357)
(358 356)
(359 358)
(360 361)
(359 361)
(362 360)
(363 362)
(364 365)
(363 365)
(366 364)
(367 366)
(368 369)
(367 369)
(370 368)
(371 370)
(326 372)
(371 372)
(373 374)
(375 376)
)

// concaveStart mixedStart nonFeatureStart
32 32 32
// internalStart flatStart openStart multipleStart
357 359 359 359
// normals

665
(
(0.014001289 0.81484784 0.57950578)
(0.028130428 0.28876327 0.95698717)
(-0.5903644 0.74175408 0.31823067)
(-0.010528992 0.79982627 0.60013922)
(0.54369351 0.61759138 0.56831175)
(0.03209335 -0 0.99948488)
(0.69152186 0 0.72235553)
(0.03209335 0 0.99948488)
(-0.88260721 0 0.47011116)
(0.6807424 0.17587801 0.71109543)
(0.030693837 0.29208486 0.95589974)
(-0.85818008 0.233637 0.45710032)
(-0.85795848 0.23090538 0.45890081)
(-0.43220305 0.90051763 0.047629098)
(-0.82555557 0.55909619 0.076612409)
(0.03209335 0 0.99948488)
(0.69152186 0 0.72235553)
(0.03209335 0 0.99948488)
(-0.88260721 0 0.47011116)
(0.030693836 -0.29208497 0.95589971)
(-0.85818006 -0.23363708 0.45710031)
(0.028130451 -0.28876341 0.95698713)
(0.68074239 -0.1758781 0.71109542)
(0.014001356 -0.81484794 0.57950565)
(0.54369341 -0.61759154 0.56831168)
(-0.010528919 -0.79982637 0.60013909)
(-0.59036432 -0.74175419 0.31823056)
(-0.85795846 -0.23090549 0.45890078)
(-0.82555557 -0.55909617 0.076612478)
(-0.4322032 -0.90051755 0.04762922)
(0.03209335 0 0.99948488)
(0.69152186 0 0.72235553)
(0.03209335 0 0.99948488)
(-0.88260721 0 0.47011116)
(0.03209335 -0 0.99948488)
(0.69152186 0 0.72235553)
(0.03209335 0 0.99948488)
(-0.88260721 0 0.47011116)
(0.03209335 -0 0.99948488)
(0.69152186 0 0.72235553)
(0.03209335 0 0.99948488)
(-0.88260721 0 0.47011116)
(0.69152186 0 0.72235553)
(0.03209335 0 0.99948488)
(0.03209335 0 0.99948488)
(-0.88260721 0 0.47011116)
(-0.035727196 0.90122185 -0.43188278)
(-0.082374199 0.40624849 -0.91004212)
(0.6015041 0.76711406 -0.22299963)
(-0.011979636 0.89329048 -0.44932017)
(-0.61338909 0.67147598 -0.415781)
(-0.096115059 0 -0.99537023)
(-0.82774421 0 -0.56110562)
(-0.096115059 -0 -0.99537023)
(0.93937156 0 -0.34290097)
(-0.81089141 0.20076185 -0.54968155)
(-0.087558055 0.41246986 -0.90675366)
(0.90899884 0.25223127 -0.33181395)
(-0.096115059 0 -0.99537023)
(-0.82774421 -0 -0.56110562)
(-0.096115059 0 -0.99537023)
(0.93937156 0 -0.34290097)
(-0.087558049 -0.41246999 -0.9067536)
(0.90899882 -0.25223136 -0.33181394)
(-0.082374227 -0.40624867 -0.91004204)
(-0.81089139 -0.20076195 -0.54968154)
(-0.035727264 -0.90122191 -0.43188266)
(-0.61338896 -0.67147613 -0.41578093)
(-0.011979711 -0.89329054 -0.44932004)
(0.601504 -0.76711416 -0.22299956)
(-0.096115059 0 -0.99537023)
(-0.82774421 -0 -0.56110562)
(-0.096115059 0 -0.99537023)
(0.93937156 0 -0.34290097)
(-0.096115059 0 -0.99537023)
(-0.82774421 0 -0.56110562)
(-0.096115059 -0 -0.99537023)
(0.93937156 0 -0.34290097)
(-0.096115059 0 -0.99537023)
(-0.82774421 0 -0.56110562)
(-0.096115059 -0 -0.99537023)
(0.93937156 0 -0.34290097)
(-0.82774421 -0 -0.56110562)
(-0.096115059 0 -0.99537023)
(-0.096115059 0 -0.99537023)
(0.93937156 0 -0.34290097)
(0.90939427 -0.24719688 -0.33450825)
(0.83100371 -0.55451077 -0.044166191)
(0.43852592 -0.89829451 -0.027604142)
(0.90939429 0.24719677 -0.33450827)
(0.43852575 0.8982946 -0.027604072)
(0.83100369 0.55451079 -0.044166151)
(-0.014033711 -0.81486709 0.57947794)
(-0.028197346 -0.28876011 0.95698616)
(0.59072931 -0.74084433 0.31966945)
(0.010502131 -0.79984332 0.60011696)
(-0.54462388 -0.615882 0.56927515)
(-0.032167152 0 0.9994825)
(-0.69152186 0 0.72235553)
(-0.032167152 0 0.9994825)
(0.88260009 0 0.47012455)
(-0.68073971 -0.17589979 0.71109262)
(-0.030764485 -0.29207831 0.95589948)
(0.85817817 -0.23361331 0.457116)
(0.85774205 -0.22833904 0.46058643)
(0.4322132 -0.90051255 0.047633002)
(0.82555312 -0.55909903 0.076618036)
(-0.032167152 0 0.9994825)
(-0.69152186 0 0.72235553)
(-0.032167152 0 0.9994825)
(0.88260009 0 0.47012455)
(-0.030764486 0.2920782 0.95589951)
(0.85817819 0.23361322 0.45711601)
(-0.028197322 0.28875998 0.9569862)
(-0.68073972 0.1758997 0.71109263)
(-0.014033644 0.81486699 0.57947808)
(-0.54462397 0.61588184 0.56927523)
(0.010502204 0.79984322 0.60011709)
(0.59072939 0.74084422 0.31966955)
(0.85774207 0.22833893 0.46058645)
(0.82555311 0.55909905 0.076617968)
(0.43221305 0.90051263 0.04763288)
(-0.032167152 0 0.9994825)
(-0.69152186 0 0.72235553)
(-0.032167152 0 0.9994825)
(0.88260009 0 0.47012455)
(-0.032167152 0 0.9994825)
(-0.69152186 0 0.72235553)
(-0.032167152 0 0.9994825)
(0.88260009 0 0.47012455)
(-0.032167152 0 0.9994825)
(-0.69152186 0 0.72235553)
(-0.032167152 0 0.9994825)
(0.88260009 0 0.47012455)
(-0.69152186 0 0.72235553)
(-0.032167152 0 0.9994825)
(-0.032167152 0 0.9994825)
(0.88260009 0 0.47012455)
(0.035648244 -0.90119685 -0.43194148)
(0.08218011 -0.40626473 -0.91005241)
(-0.60099948 -0.76781401 -0.22194879)
(0.01200922 -0.89330089 -0.44929867)
(0.61210822 -0.67317561 -0.41491942)
(0.80966596 -0.211689 -0.54738359)
(0.095896865 0 -0.99539128)
(0.82774402 0 -0.56110591)
(0.095896865 0 -0.99539128)
(-0.93937105 0 -0.34290235)
(0.81089117 -0.20076208 -0.54968181)
(0.087358188 -0.41249515 -0.90676143)
(-0.9089982 -0.2522319 -0.33181523)
(0.095896865 0 -0.99539128)
(0.82774402 0 -0.56110591)
(0.095896865 0 -0.99539128)
(-0.93937105 -0 -0.34290235)
(0.087358194 0.41249502 -0.90676149)
(-0.90899822 0.2522318 -0.33181524)
(0.082180082 0.40626456 -0.91005249)
(0.81089119 0.20076198 -0.54968182)
(0.035648176 0.90119679 -0.43194161)
(0.80966598 0.21168894 -0.54738359)
(0.61210834 0.67317546 -0.41491949)
(0.012009145 0.89330083 -0.44929879)
(-0.60099958 0.76781392 -0.22194887)
(0.095896865 0 -0.99539128)
(0.82774402 0 -0.56110591)
(0.095896865 0 -0.99539128)
(-0.93937105 -0 -0.34290235)
(0.095896865 0 -0.99539128)
(0.82774402 0 -0.56110591)
(0.095896865 0 -0.99539128)
(-0.93937105 0 -0.34290235)
(0.095896865 0 -0.99539128)
(0.82774402 0 -0.56110591)
(0.095896865 0 -0.99539128)
(-0.93937105 0 -0.34290235)
(0.82774402 0 -0.56110591)
(0.095896865 0 -0.99539128)
(0.095896865 0 -0.99539128)
(-0.93937105 -0 -0.34290235)
(-0.90919471 0.24977874 -0.33312996)
(-0.83100565 0.55450782 -0.044166638)
(-0.43852542 0.89829475 -0.027604275)
(-0.90919468 -0.24977885 -0.33312994)
(-0.43852559 -0.89829467 -0.027604345)
(-0.83100566 -0.5545078 -0.044166677)
(-0.81518881 0.012054767 0.57906985)
(-0.28789517 0.027461078 0.95726812)
(-0.7423865 -0.58908885 0.31911848)
(-0.8012919 -0.010612953 0.59817945)
(-0.61933695 0.54294341 0.56712803)
(0 0.032167152 0.9994825)
(0 0.6915197 0.7223576)
(-0 0.032167152 0.9994825)
(0 -0.88185834 0.47151445)
(-0.17529302 0.68081242 0.71117284)
(-0.29217511 0.030763533 0.95586992)
(-0.23114064 -0.85797792 0.458746)
(-0.23021779 -0.85790128 0.45935299)
(-0.90051271 -0.43221285 0.04763306)
(-0.55909911 -0.82555306 0.076618085)
(0 0.032167152 0.9994825)
(-0 0.6915197 0.7223576)
(0 0.032167152 0.9994825)
(0 -0.88185834 0.47151445)
(0.2931059 0.03075437 0.95558521)
(0.23190284 -0.85781796 0.45866047)
(0.28880569 0.027446112 0.95699424)
(0.17587882 0.68074017 0.71109736)
(0.81373621 0.01212777 0.58110782)
(0.61739909 0.54400201 0.56822546)
(0.79982636 -0.01052884 0.6001391)
(0.74061462 -0.59082107 0.32003194)
(0.23097004 -0.85774201 0.45927278)
(0.55725718 -0.82678994 0.076699663)
(0.90051257 -0.43221316 0.047632986)
(0 0.032167152 0.9994825)
(-0 0.6915197 0.7223576)
(0 0.032167152 0.9994825)
(0 -0.88185834 0.47151445)
(0 0.032167152 0.9994825)
(0 0.6915197 0.7223576)
(-0 0.032167152 0.9994825)
(0 -0.88185834 0.47151445)
(0 0.032167152 0.9994825)
(0 0.6915197 0.7223576)
(-0 0.032167152 0.9994825)
(0 -0.88185834 0.47151445)
(-0 0.6915197 0.7223576)
(0 0.032167152 0.9994825)
(0 0.032167152 0.9994825)
(0 -0.88185834 0.47151445)
(-0.9014615 -0.033476037 -0.43156288)
(-0.4051762 -0.081277551 -0.91061858)
(-0.76859855 0.59975242 -0.22260571)
(-0.8942196 -0.011828254 -0.44747223)
(-0.6748086 -0.61100611 -0.41388995)
(-0.21166425 -0.80971242 -0.54732444)
(-0 -0.09611532 -0.99537021)
(0 -0.82774402 -0.56110591)
(0 -0.09611532 -0.99537021)
(0 0.93894727 -0.34406108)
(-0.20009983 -0.81100332 -0.54975783)
(-0.41272212 -0.08754731 -0.90663991)
(-0.24972185 0.90919918 -0.33316041)
(0 -0.09611532 -0.99537021)
(0 -0.82774402 -0.56110591)
(0 -0.09611532 -0.99537021)
(0 0.93894727 -0.34406108)
(0.41391427 -0.087495301 -0.90610129)
(0.25053751 0.90900132 -0.33308791)
(0.40634384 -0.081221543 -0.91010315)
(0.20076208 -0.81089117 -0.54968181)
(0.90056242 -0.033654095 -0.43342211)
(0.21235218 -0.80958821 -0.5472417)
(0.67294106 -0.61241907 -0.41484119)
(0.89330089 -0.012009309 -0.44929868)
(0.76692248 0.60164102 -0.22328901)
(0 -0.09611532 -0.99537021)
(0 -0.82774402 -0.56110591)
(0 -0.09611532 -0.99537021)
(0 0.93894727 -0.34406108)
(-0 -0.09611532 -0.99537021)
(0 -0.82774402 -0.56110591)
(0 -0.09611532 -0.99537021)
(0 0.93894727 -0.34406108)
(-0 -0.09611532 -0.99537021)
(0 -0.82774402 -0.56110591)
(0 -0.09611532 -0.99537021)
(0 0.93894727 -0.34406108)
(0 -0.82774402 -0.56110591)
(0 -0.09611532 -0.99537021)
(0 -0.09611532 -0.99537021)
(0 0.93894727 -0.34406108)
(0.24987849 0.90905372 -0.33343978)
(0.55266904 0.83222723 -0.044212768)
(0.89829469 0.43852554 -0.027604337)
(-0.24907211 0.90924996 -0.333508)
(-0.89829483 0.43852524 -0.027604379)
(-0.55450788 0.83100561 -0.044166706)
(0.81373621 -0.01212777 0.58110782)
(0.28880569 -0.027446112 0.95699424)
(0.74061462 0.59082107 0.32003194)
(0.79982636 0.01052884 0.6001391)
(0.61739909 -0.54400201 0.56822546)
(0 -0.03209335 0.99948488)
(0 -0.6915197 0.7223576)
(0 -0.03209335 0.99948488)
(0 0.88260721 0.47011116)
(0.17587882 -0.68074017 0.71109736)
(0.29301542 -0.0306847 0.9556152)
(0.23440647 0.85801661 0.45701324)
(0.23097004 0.85774201 0.45927278)
(0.90051257 0.43221316 0.047632986)
(0.55725718 0.82678994 0.076699663)
(0 -0.03209335 0.99948488)
(0 -0.6915197 0.7223576)
(0 -0.03209335 0.99948488)
(-0 0.88260721 0.47011116)
(-0.29208486 -0.030693837 0.95589974)
(-0.233637 0.85818008 0.45710032)
(-0.28789517 -0.027461078 0.95726812)
(-0.17529302 -0.68081242 0.71117284)
(-0.81518881 -0.012054767 0.57906985)
(-0.61933695 -0.54294341 0.56712803)
(-0.8012919 0.010612953 0.59817945)
(-0.7423865 0.58908885 0.31911848)
(-0.23021779 0.85790128 0.45935299)
(-0.55909911 0.82555306 0.076618085)
(-0.90051271 0.43221285 0.04763306)
(0 -0.03209335 0.99948488)
(0 -0.6915197 0.7223576)
(0 -0.03209335 0.99948488)
(-0 0.88260721 0.47011116)
(0 -0.03209335 0.99948488)
(0 -0.6915197 0.7223576)
(0 -0.03209335 0.99948488)
(0 0.88260721 0.47011116)
(0 -0.03209335 0.99948488)
(0 -0.6915197 0.7223576)
(0 -0.03209335 0.99948488)
(0 0.88260721 0.47011116)
(0 -0.6915197 0.7223576)
(0 -0.03209335 0.99948488)
(0 -0.03209335 0.99948488)
(-0 0.88260721 0.47011116)
(0.90056242 0.033654095 -0.43342211)
(0.40634412 0.081221529 -0.91010303)
(0.76692248 -0.60164102 -0.22328901)
(0.89329052 0.011979803 -0.44932008)
(0.6714741 0.61339049 -0.41578196)
(0 0.096115059 -0.99537023)
(0 0.82774421 -0.56110562)
(0 0.096115059 -0.99537023)
(0 -0.93937156 -0.34290097)
(0.20076514 0.81089085 -0.54968117)
(0.4139143 0.087495062 -0.9061013)
(0.2500862 -0.90952169 -0.3320048)
(0 0.096115059 -0.99537023)
(0 0.82774421 -0.56110562)
(0 0.096115059 -0.99537023)
(0 -0.93937156 -0.34290097)
(-0.41272215 0.087547071 -0.90663992)
(-0.24927182 -0.90971894 -0.33207681)
(-0.40517648 0.081277537 -0.91061846)
(-0.20010289 0.811003 -0.5497572)
(-0.9014615 0.033476037 -0.43156288)
(-0.21166425 0.80971242 -0.54732444)
(-0.67310944 0.61229196 -0.41475564)
(-0.89420942 0.011799196 -0.44749335)
(-0.76859855 -0.59975242 -0.22260571)
(0 0.096115059 -0.99537023)
(0 0.82774421 -0.56110562)
(0 0.096115059 -0.99537023)
(0 -0.93937156 -0.34290097)
(0 0.096115059 -0.99537023)
(0 0.82774421 -0.56110562)
(0 0.096115059 -0.99537023)
(0 -0.93937156 -0.34290097)
(0 0.096115059 -0.99537023)
(0 0.82774421 -0.56110562)
(0 0.096115059 -0.99537023)
(0 -0.93937156 -0.34290097)
(0 0.82774421 -0.56110562)
(0 0.096115059 -0.99537023)
(0 0.096115059 -0.99537023)
(0 -0.93937156 -0.34290097)
(-0.24613022 -0.9099602 -0.33375492)
(-0.55450788 -0.83100561 -0.044166706)
(-0.89829483 -0.43852524 -0.027604379)
(0.24692832 -0.9097684 -0.33368828)
(0.89829469 -0.43852554 -0.027604337)
(0.55450785 -0.83100563 -0.044166672)
(-0.60350292 0.40429107 0.68726484)
(-0.83067793 0.55647729 0.017527395)
(-0.54504977 0.47918614 0.68796904)
(-0.75090793 0.66016848 0.017744481)
(-0.40429099 0.60350297 0.68726483)
(-0.55647718 0.83067799 0.017527709)
(-0.66016848 0.75090793 0.017744481)
(-0.47918614 0.54504977 0.68796904)
(-0.32133849 0.65360268 0.68523362)
(-0.44113497 0.8972688 0.017567892)
(-0.23349036 0.68983333 0.68528259)
(-0.32056031 0.94707629 0.016958409)
(-0.049017502 0.73075407 0.68087867)
(-0.066917671 0.99761022 0.017200805)
(-0.19571703 0.98050814 0.017280875)
(-0.1418828 0.71080808 0.68892753)
(0.049017496 0.73075398 0.68087877)
(0.066917671 0.99761022 0.017200805)
(0.14188304 0.71080913 0.6889264)
(0.19571706 0.98050814 0.017280847)
(0.32133957 0.65360488 0.68523101)
(0.44113497 0.8972688 0.017567892)
(0.32056031 0.94707629 0.016958592)
(0.23349093 0.68983502 0.68528069)
(0.40735844 0.60780033 0.6816435)
(0.55665508 0.83055879 0.017527733)
(0.48072355 0.54707852 0.68528094)
(0.6599778 0.75107549 0.017745634)
(0.60350292 0.40429107 0.68726484)
(0.83067792 0.55647728 0.017528344)
(0.75091732 0.66017673 0.017025312)
(0.54504977 0.47918614 0.68796904)
(0.65385149 0.32146056 0.68493893)
(0.89728214 0.44114119 0.016709565)
(0.68992752 0.23324253 0.68527216)
(0.94717789 0.32021069 0.017864902)
(0.73074296 0.049016761 0.68089066)
(0.99761022 0.066917677 0.017200805)
(0.98043426 0.19608685 0.017280309)
(0.71971399 0.1439428 0.67918498)
(0.73074291 -0.049016752 0.68089071)
(0.99761022 -0.06691767 0.017200805)
(0.71971346 -0.14394269 0.67918557)
(0.98043426 -0.19608685 0.017280295)
(0.65360278 -0.32133828 0.68523362)
(0.89728214 -0.44114119 0.016709565)
(0.94717791 -0.32021065 0.017864811)
(0.68992584 -0.23324193 0.68527405)
(0.60136362 -0.40304478 0.68986716)
(0.83055857 -0.55665539 0.01752805)
(0.54708479 -0.48072906 0.68527207)
(0.75108489 -0.65998606 0.017026304)
(0.4030499 -0.60137125 0.68985752)
(0.55665539 -0.83055858 0.017527732)
(0.65998605 -0.75108488 0.017027161)
(0.48072906 -0.54708479 0.68527207)
(0.3213393 -0.65360501 0.68523102)
(0.4411411 -0.89728219 0.016709565)
(0.23324253 -0.68992752 0.68527216)
(0.32021069 -0.94717789 0.017864902)
(0.04901675 -0.73074287 0.68089076)
(0.066917671 -0.99761022 0.017200805)
(0.19608686 -0.98043426 0.017280281)
(0.14394281 -0.71971399 0.67918498)
(-0.049016756 -0.73074296 0.68089066)
(-0.066917671 -0.99761022 0.017200805)
(-0.14394257 -0.71971292 0.67918616)
(-0.19608683 -0.98043426 0.017280309)
(-0.32146273 -0.65385607 0.68493354)
(-0.4411411 -0.89728219 0.016709565)
(-0.32021069 -0.9471779 0.01786472)
(-0.23324196 -0.68992583 0.68527406)
(-0.40429634 -0.60351046 0.68725511)