/*--------------------------------*- C++ -*----------------------------------*\
  =========                 |
  \\      /  F ield         | OpenFOAM: The Open Source CFD Toolbox
   \\    /   O peration     | Website:  https://openfoam.org
    \\  /    A nd           | Version:  12
     \\/     M anipulation  |
\*---------------------------------------------------------------------------*/
FoamFile
{
    format      ascii;
    class       featureEdgeMesh;
    location    "constant/triSurface";
    object      rocket.eMesh;
}
// * * * * * * * * * * * * * * * * * * * * * * * * * * * * * * * * * * * * * //


// points:

377
(
(-8.6397 0.3328 22.8789)
(-8.5975 0.333 22.8776)
(-8.6397 -0.0098 22.8789)
(-8.5975 -0.01 22.8776)
(-1.321 0.3328 5.2211)
(-1.3631 0.333 5.225)
(-1.321 -0.0098 5.2211)
(-1.3631 -0.01 5.225)
(8.4418 -0.0098 22.8789)
(8.3997 -0.01 22.8776)
(8.4418 0.3328 22.8789)
(8.3997 0.333 22.8776)
(1.1231 -0.0098 5.2211)
(1.1653 -0.01 5.225)
(1.1231 0.3328 5.2211)
(1.1653 0.333 5.225)
(-0.2702 -8.3793 22.8789)
(-0.2705 -8.3371 22.8776)
(0.0723 -8.3793 22.8789)
(0.0726 -8.3371 22.8776)
(-0.2702 -1.0605 5.2211)
(-0.2705 -1.1027 5.225)
(0.0723 -1.0605 5.2211)
(0.0726 -1.1027 5.225)
(0.0723 8.7023 22.8789)
(0.0726 8.6601 22.8776)
(-0.2702 8.7023 22.8789)
(-0.2705 8.6601 22.8776)
(0.0723 1.3835 5.2211)
(0.0726 1.4257 5.225)
(-0.2702 1.3835 5.2211)
(-0.2705 1.4257 5.225)
(-8.6304 0.3517 22.8521)
(-8.5925 0.3528 22.8513)
(-8.5992 0.2652 22.8864)
(-8.5992 0.304 22.8864)
(-8.6428 0.304 22.8878)
(-8.6428 0.2652 22.8878)
(-8.665 0.333 22.8315)
(-8.665 0.3545 22.6723)
(-8.6534 0.3528 22.8097)
(-8.5992 0.019 22.8864)
(-8.5992 0.0578 22.8864)
(-8.6428 0.0578 22.8878)
(-8.6428 0.019 22.8878)
(-8.5925 -0.0298 22.8513)
(-8.6304 -0.0287 22.8521)
(-8.665 -0.01 22.8315)
(-8.665 -0.0315 22.6723)
(-8.6534 -0.0298 22.8097)
(-8.5992 0.2159 22.8864)
(-8.6428 0.2159 22.8878)
(-8.5992 0.1615 22.8864)
(-8.6428 0.1615 22.8878)
(-8.5992 0.1071 22.8864)
(-8.6428 0.1071 22.8878)
(-1.3302 0.3517 5.2613)
(-1.3682 0.3528 5.2645)
(-1.3614 0.2652 5.2119)
(-1.3614 0.304 5.2119)
(-1.3179 0.304 5.2077)
(-1.3179 0.2652 5.2077)
(-1.3614 0.019 5.2119)
(-1.3614 0.0578 5.2119)
(-1.3179 0.0578 5.2077)
(-1.3179 0.019 5.2077)
(-1.3682 -0.0298 5.2645)
(-1.3302 -0.0287 5.2613)
(-1.3614 0.2159 5.2119)
(-1.3179 0.2159 5.2077)
(-1.3614 0.1615 5.2119)
(-1.3179 0.1615 5.2077)
(-1.3614 0.1071 5.2119)
(-1.3179 0.1071 5.2077)
(-1.2956 -0.01 5.2903)
(-1.2956 -0.0315 5.563)
(-1.3072 -0.0298 5.3234)
(-1.2956 0.333 5.2903)
(-1.2956 0.3545 5.563)
(-1.3072 0.3528 5.3234)
(8.4326 -0.0287 22.8521)
(8.3946 -0.0298 22.8513)
(8.4014 0.0578 22.8864)
(8.4014 0.019 22.8864)
(8.4449 0.019 22.8878)
(8.4449 0.0578 22.8878)
(8.4672 -0.01 22.8315)
(8.4672 -0.0315 22.6723)
(8.4556 -0.0298 22.8097)
(8.4014 0.304 22.8864)
(8.4014 0.2652 22.8864)
(8.4449 0.2652 22.8878)
(8.4449 0.304 22.8878)
(8.3946 0.3528 22.8513)
(8.4326 0.3517 22.8521)
(8.4672 0.333 22.8315)
(8.4672 0.3545 22.6723)
(8.4556 0.3528 22.8097)
(8.4014 0.1071 22.8864)
(8.4449 0.1071 22.8878)
(8.4014 0.1615 22.8864)
(8.4449 0.1615 22.8878)
(8.4014 0.2159 22.8864)
(8.4449 0.2159 22.8878)
(1.1324 -0.0287 5.2613)
(1.1703 -0.0298 5.2645)
(1.3233 -0.0105 5.4589)
(1.1636 0.0578 5.2119)
(1.1636 0.019 5.2119)
(1.12 0.019 5.2077)
(1.12 0.0578 5.2077)
(1.1636 0.304 5.2119)
(1.1636 0.2652 5.2119)
(1.12 0.2652 5.2077)
(1.12 0.304 5.2077)
(1.3233 0.3335 5.4589)
(1.1703 0.3528 5.2645)
(1.1324 0.3517 5.2613)
(1.1636 0.1071 5.2119)
(1.12 0.1071 5.2077)
(1.1636 0.1615 5.2119)
(1.12 0.1615 5.2077)
(1.1636 0.2159 5.2119)
(1.12 0.2159 5.2077)
(1.0978 0.333 5.2903)
(1.0978 0.3545 5.563)
(1.1094 0.3528 5.3234)
(1.0978 -0.01 5.2903)
(1.0978 -0.0315 5.563)
(1.1094 -0.0298 5.3234)
(-0.2891 -8.37 22.8521)
(-0.2902 -8.3321 22.8513)
(-0.2026 -8.3388 22.8864)
(-0.2414 -8.3388 22.8864)
(-0.2414 -8.3823 22.8878)
(-0.2026 -8.3823 22.8878)
(-0.2705 -8.4046 22.8315)
(-0.2919 -8.4046 22.6723)
(-0.2902 -8.393 22.8097)
(0.0436 -8.3388 22.8864)
(0.0048 -8.3388 22.8864)
(0.0048 -8.3823 22.8878)
(0.0436 -8.3823 22.8878)
(0.0924 -8.3321 22.8513)
(0.0913 -8.37 22.8521)
(0.0726 -8.4046 22.8315)
(0.0941 -8.4046 22.6723)
(0.0924 -8.393 22.8097)
(-0.1534 -8.3388 22.8864)
(-0.1534 -8.3823 22.8878)
(-0.0989 -8.3388 22.8864)
(-0.0989 -8.3823 22.8878)
(-0.0445 -8.3388 22.8864)
(-0.0445 -8.3823 22.8878)
(-0.2891 -1.0698 5.2613)
(-0.2902 -1.1077 5.2645)
(-0.2709 -1.2607 5.4589)
(-0.2026 -1.101 5.2119)
(-0.2414 -1.101 5.2119)
(-0.2414 -1.0575 5.2077)
(-0.2026 -1.0575 5.2077)
(0.0436 -1.101 5.2119)
(0.0048 -1.101 5.2119)
(0.0048 -1.0575 5.2077)
(0.0436 -1.0575 5.2077)
(0.073 -1.2607 5.4589)
(0.0924 -1.1077 5.2645)
(0.0913 -1.0698 5.2613)
(-0.1534 -1.101 5.2119)
(-0.1534 -1.0575 5.2077)
(-0.0989 -1.101 5.2119)
(-0.0989 -1.0575 5.2077)
(-0.0445 -1.101 5.2119)
(-0.0445 -1.0575 5.2077)
(0.0726 -1.0352 5.2903)
(0.0941 -1.0352 5.563)
(0.0924 -1.0468 5.3234)
(-0.2705 -1.0352 5.2903)
(-0.2919 -1.0352 5.563)
(-0.2902 -1.0468 5.3234)
(0.0913 8.693 22.8521)
(0.0924 8.6551 22.8513)
(0.0048 8.6618 22.8864)
(0.0436 8.6618 22.8864)
(0.0436 8.7054 22.8878)
(0.0048 8.7054 22.8878)
(0.0726 8.7276 22.8315)
(0.0941 8.7276 22.6723)
(0.0924 8.716 22.8097)
(-0.2414 8.6618 22.8864)
(-0.2026 8.6618 22.8864)
(-0.2026 8.7054 22.8878)
(-0.2414 8.7054 22.8878)
(-0.2902 8.6551 22.8513)
(-0.2891 8.693 22.8521)
(-0.2705 8.7276 22.8315)
(-0.2919 8.7276 22.6723)
(-0.2902 8.716 22.8097)
(-0.0445 8.6618 22.8864)
(-0.0445 8.7054 22.8878)
(-0.0989 8.6618 22.8864)
(-0.0989 8.7054 22.8878)
(-0.1534 8.6618 22.8864)
(-0.1534 8.7054 22.8878)
(0.0913 1.3928 5.2613)
(0.0924 1.4308 5.2645)
(0.0048 1.424 5.2119)
(0.0436 1.424 5.2119)
(0.0436 1.3805 5.2077)
(0.0048 1.3805 5.2077)
(-0.2414 1.424 5.2119)
(-0.2026 1.424 5.2119)
(-0.2026 1.3805 5.2077)
(-0.2414 1.3805 5.2077)
(-0.2709 1.5837 5.4589)
(-0.2902 1.4308 5.2645)
(-0.2891 1.3928 5.2613)
(-0.0445 1.424 5.2119)
(-0.0445 1.3805 5.2077)
(-0.0989 1.424 5.2119)
(-0.0989 1.3805 5.2077)
(-0.1534 1.424 5.2119)
(-0.1534 1.3805 5.2077)
(-0.2705 1.3582 5.2903)
(-0.2919 1.3582 5.563)
(-0.2902 1.3698 5.3234)
(0.0726 1.3582 5.2903)
(0.0941 1.3582 5.563)
(0.0924 1.3698 5.3234)
(-1.676 1.3716 15.7268)
(-1.8207 1.1556 15.7268)
(-1.5043 1.5669 15.7268)
(-1.093 1.8833 15.7268)
(-1.309 1.7386 15.7268)
(-0.8597 1.998 15.7268)
(-0.6133 2.0814 15.7268)
(-0.0989 2.1497 15.7268)
(-0.3583 2.1323 15.7268)
(0.1605 2.1323 15.7268)
(0.4155 2.0814 15.7268)
(0.8952 1.8833 15.7268)
(0.6619 1.998 15.7268)
(1.1111 1.7386 15.7268)
(1.3065 1.5669 15.7268)
(1.6229 1.1556 15.7268)
(1.4782 1.3716 15.7268)
(1.7376 0.9223 15.7268)
(1.8209 0.6759 15.7268)
(1.8893 0.1615 15.7268)
(1.8719 0.4209 15.7268)
(1.8719 -0.0979 15.7268)
(1.8209 -0.3529 15.7268)
(1.6229 -0.8326 15.7268)
(1.7376 -0.5993 15.7268)
(1.4782 -1.0485 15.7268)
(1.3065 -1.2439 15.7268)
(0.8952 -1.5603 15.7268)
(1.1111 -1.4156 15.7268)
(0.6619 -1.675 15.7268)
(0.4155 -1.7583 15.7268)
(-0.0989 -1.8267 15.7268)
(0.1605 -1.8093 15.7268)
(-0.3583 -1.8093 15.7268)
(-0.6133 -1.7583 15.7268)
(-1.093 -1.5603 15.7268)
(-0.8597 -1.675 15.7268)
(-1.309 -1.4156 15.7268)
(-1.5043 -1.2439 15.7268)
(-1.8207 -0.8326 15.7268)
(-1.676 -1.0485 15.7268)
(-1.9354 -0.5993 15.7268)
(-2.0188 -0.3529 15.7268)
(-2.0871 0.1615 15.7268)
(-2.0697 -0.0979 15.7268)
(-2.0697 0.4209 15.7268)
(-2.0188 0.6759 15.7268)
(-1.9354 0.9223 15.7268)
(-1.0231 0.8706 16.4347)
(-1.1079 0.7441 16.4347)
(-0.9225 0.9851 16.4347)
(-0.6815 1.1705 16.4347)
(-0.808 1.0857 16.4347)
(-0.5447 1.2377 16.4347)
(-0.4004 1.2866 16.4347)
(-0.0989 1.3266 16.4347)
(-0.2509 1.3164 16.4347)
(0.0531 1.3164 16.4347)
(0.2025 1.2866 16.4347)
(0.4836 1.1705 16.4347)
(0.3469 1.2377 16.4347)
(0.6102 1.0857 16.4347)
(0.7247 0.9851 16.4347)
(0.9101 0.7441 16.4347)
(0.8253 0.8706 16.4347)
(0.9773 0.6073 16.4347)
(1.0262 0.463 16.4347)
(1.0662 0.1615 16.4347)
(1.056 0.3135 16.4347)
(1.056 0.0095 16.4347)
(1.0262 -0.1399 16.4347)
(0.9101 -0.421 16.4347)
(0.9773 -0.2843 16.4347)
(0.8253 -0.5476 16.4347)
(0.7247 -0.6621 16.4347)
(0.4836 -0.8475 16.4347)
(0.6102 -0.7627 16.4347)
(0.3469 -0.9147 16.4347)
(0.2025 -0.9636 16.4347)
(-0.0989 -1.0036 16.4347)
(0.0531 -0.9934 16.4347)
(-0.2509 -0.9934 16.4347)
(-0.4004 -0.9636 16.4347)
(-0.6815 -0.8475 16.4347)
(-0.5447 -0.9147 16.4347)
(-0.808 -0.7627 16.4347)
(-0.9225 -0.6621 16.4347)
(-1.1079 -0.421 16.4347)
(-1.0231 -0.5476 16.4347)
(-1.1751 -0.2843 16.4347)
(-1.224 -0.1399 16.4347)
(-1.264 0.1615 16.4347)
(-1.2538 0.0095 16.4347)
(-1.2538 0.3135 16.4347)
(-1.224 0.463 16.4347)
(-1.1751 0.6073 16.4347)
(-0.9613 0.275 16.4385)
(-0.9689 0.1615 16.4385)
(-0.939 0.3866 16.4385)
(-0.8523 0.5965 16.4385)
(-0.9025 0.4944 16.4385)
(-0.789 0.691 16.4385)
(-0.7139 0.7765 16.4385)
(-0.5339 0.9149 16.4385)
(-0.6284 0.8516 16.4385)
(-0.4318 0.9651 16.4385)
(-0.324 1.0016 16.4385)
(-0.0989 1.0315 16.4385)
(-0.2124 1.0239 16.4385)
(0.0146 1.0239 16.4385)
(0.1262 1.0016 16.4385)
(0.3361 0.9149 16.4385)
(0.234 0.9651 16.4385)
(0.4305 0.8516 16.4385)
(0.516 0.7765 16.4385)
(0.6545 0.5965 16.4385)
(0.5912 0.691 16.4385)
(0.7046 0.4944 16.4385)
(0.7411 0.3866 16.4385)
(0.771 0.1615 16.4385)
(0.7634 0.275 16.4385)
(0.7634 0.048 16.4385)
(0.7411 -0.0636 16.4385)
(0.6545 -0.2735 16.4385)
(0.7046 -0.1714 16.4385)
(0.5912 -0.3679 16.4385)
(0.516 -0.4534 16.4385)
(0.3361 -0.5919 16.4385)
(0.4305 -0.5286 16.4385)
(0.234 -0.642 16.4385)
(0.1262 -0.6785 16.4385)
(-0.0989 -0.7084 16.4385)
(0.0146 -0.7008 16.4385)
(-0.2124 -0.7008 16.4385)
(-0.324 -0.6785 16.4385)
(-0.5339 -0.5919 16.4385)
(-0.4318 -0.642 16.4385)
(-0.6284 -0.5286 16.4385)
(-0.7139 -0.4534 16.4385)
(-0.8523 -0.2735 16.4385)
(-0.789 -0.3679 16.4385)
(-0.9025 -0.1714 16.4385)
(-0.939 -0.0636 16.4385)
(-0.9613 0.048 16.4385)
(0.2316 0.9594 15.9802)
(0.1246 0.9957 15.9802)
(-0.9331 -0.062 15.9802)
(-0.8968 -0.169 15.9802)
)


// edges:

359
(
(0 1)
(32 0)
(1 33)
(34 35)
(36 37)
(1 35)
(0 36)
(0 38)
(39 40)
(41 42)
(43 44)
(44 2)
(3 41)
(2 3)
(3 45)
(2 46)
(2 47)
(48 49)
(50 34)
(37 51)
(52 50)
(51 53)
(42 54)
(55 43)
(52 54)
(53 55)
(4 5)
(56 4)
(5 57)
(58 59)
(60 61)
(5 59)
(4 60)
(62 63)
(64 65)
(65 6)
(7 62)
(6 7)
(7 66)
(6 67)
(68 58)
(61 69)
(70 68)
(69 71)
(63 72)
(73 64)
(70 72)
(71 73)
(6 74)
(75 76)
(4 77)
(78 79)
(8 9)
(80 8)
(9 81)
(82 83)
(84 85)
(9 83)
(8 84)
(8 86)
(87 88)
(89 90)
(91 92)
(92 10)
(11 89)
(10 11)
(11 93)
(10 94)
(10 95)
(96 97)
(98 82)
(85 99)
(100 98)
(99 101)
(90 102)
(103 91)
(100 102)
(101 103)
(12 13)
(104 12)
(13 105)
(13 106)
(107 108)
(109 110)
(13 108)
(12 109)
(111 112)
(113 114)
(114 14)
(15 111)
(14 15)
(15 115)
(15 116)
(14 117)
(118 107)
(110 119)
(120 118)
(119 121)
(112 122)
(123 113)
(120 122)
(121 123)
(14 124)
(125 126)
(12 127)
(128 129)
(16 17)
(130 16)
(17 131)
(132 133)
(134 135)
(17 133)
(16 134)
(16 136)
(137 138)
(139 140)
(141 142)
(142 18)
(19 139)
(18 19)
(19 143)
(18 144)
(18 145)
(146 147)
(148 132)
(135 149)
(150 148)
(149 151)
(140 152)
(153 141)
(150 152)
(151 153)
(20 21)
(154 20)
(21 155)
(21 156)
(157 158)
(159 160)
(21 158)
(20 159)
(161 162)
(163 164)
(164 22)
(23 161)
(22 23)
(23 165)
(23 166)
(22 167)
(168 157)
(160 169)
(170 168)
(169 171)
(162 172)
(173 163)
(170 172)
(171 173)
(22 174)
(175 176)
(20 177)
(178 179)
(24 25)
(180 24)
(25 181)
(182 183)
(184 185)
(25 183)
(24 184)
(24 186)
(187 188)
(189 190)
(191 192)
(192 26)
(27 189)
(26 27)
(27 193)
(26 194)
(26 195)
(196 197)
(198 182)
(185 199)
(200 198)
(199 201)
(190 202)
(203 191)
(200 202)
(201 203)
(28 29)
(204 28)
(29 205)
(206 207)
(208 209)
(29 207)
(28 208)
(210 211)
(212 213)
(213 30)
(31 210)
(30 31)
(31 214)
(31 215)
(30 216)
(217 206)
(209 218)
(219 217)
(218 220)
(211 221)
(222 212)
(219 221)
(220 222)
(30 223)
(224 225)
(28 226)
(227 228)
(229 230)
(231 229)
(232 233)
(231 233)
(234 232)
(235 234)
(236 237)
(235 237)
(238 236)
(239 238)
(240 241)
(239 241)
(242 240)
(243 242)
(244 245)
(243 245)
(246 244)
(247 246)
(248 249)
(247 249)
(250 248)
(251 250)
(252 253)
(251 253)
(254 252)
(255 254)
(256 257)
(255 257)
(258 256)
(259 258)
(260 261)
(259 261)
(262 260)
(263 262)
(264 265)
(263 265)
(266 264)
(267 266)
(268 269)
(267 269)
(270 268)
(271 270)
(272 273)
(271 273)
(274 272)
(275 274)
(230 276)
(275 276)
(277 278)
(279 277)
(280 281)
(279 281)
(282 280)
(283 282)
(284 285)
(283 285)
(286 284)
(287 286)
(288 289)
(287 289)
(290 288)
(291 290)
(292 293)
(291 293)
(294 292)
(295 294)
(296 297)
(295 297)
(298 296)
(299 298)
(300 301)
(299 301)
(302 300)
(303 302)
(304 305)
(303 305)
(306 304)
(307 306)
(308 309)
(307 309)
(310 308)
(311 310)
(312 313)
(311 313)
(314 312)
(315 314)
(316 317)
(315 317)
(318 316)
(319 318)
(320 321)
(319 321)
(322 320)
(323 322)
(278 324)
(323 324)
(325 326)
(327 325)
(328 329)
(327 329)
(330 328)
(331 330)
(332 333)
(331 333)
(334 332)
(335 334)
(336 337)
(335 337)
(338 336)
(339 338)
(340 341)
(339 341)
(342 340)
(343 342)
(344 345)
(343 345)
(346 344)
(347 346)
(348 349)
(347 349)
(350 348)
(351 350)
(352 353)
(351 353)
(354 352)
(355 354)
(356 357)
(355 357)
(358 356)
(359 358)
(360 361)
(359 361)
(362 360)
(363 362)
(364 365)
(363 365)
(366 364)
(367 366)
(368 369)
(367 369)
(370 368)
(371 370)
(326 372)
(371 372)
(373 374)
(375 376)
)

// * * * * * * * * * * * * * * * * * * * * * * * * * * * * * * * * * * * * * //


// ************************************************************************* //
