FoamFile
{
    version     2.0;
    format      ascii;
    class       dictionary;
    location    "system";
    object      decomposeParDict;
}

numberOfSubdomains  6;    // Numero di core da utilizzare

method          scotch;   // Metodo di decomposizione (scotch è generalmente il migliore)

// In alternativa puoi usare simple:
/*
method          simple;
simpleCoeffs
{
    n               (2 2 1);    // Decomposizione per direzione
    delta           0.001;
}
*/