FoamFile
{
    version     2.0;
    format      ascii;
    class       dictionary;
    object      blockMeshDict;
}

convertToMeters 1;

vertices
(
    (-20 -20 -20)  // punto 0
    ( 50 -20 -20)  // punto 1
    ( 50  20 -20)  // punto 2
    (-20  20 -20)  // punto 3
    (-20 -20  20)  // punto 4
    ( 50 -20  20)  // punto 5
    ( 50  20  20)  // punto 6
    (-20  20  20)  // punto 7
);

blocks
(
    hex (0 1 2 3 4 5 6 7) (70 40 40) simpleGrading (1 1 1)
);

boundary
(
    inlet
    {
        type patch;
        faces
        (
            (0 4 7 3)
        );
    }
    outlet
    {
        type patch;
        faces
        (
            (1 5 6 2)
        );
    }
    walls
    {
        type wall;
        faces
        (
            (0 1 2 3)
            (4 5 6 7)
            (0 1 5 4)
            (3 2 6 7)
        );
    }
);